data/Network_07R-10/scenario_5/case.raw
0,   100.00, 33, 0, 1, 60.00     / PSS(R)E-33.7    WED, SEP 12 2018   1:37
 GO Competition Network Model 07
 GO Competition Network Model 07
     1,'A1          ', 345.0000,1,   1,   1,   1,1.00397, -16.7904,1.05000,0.95000,1.10000,0.90000
     2,'A2          ', 345.0000,1,   1,   1,   1,1.00400, -16.7992,1.05000,0.95000,1.10000,0.90000
     3,'A3          ', 345.0000,1,   1,   1,   1,1.00113, -17.9492,1.05000,0.95000,1.10000,0.90000
     4,'A4          ', 345.0000,1,   1,   1,   1,1.00115, -17.9543,1.05000,0.95000,1.10000,0.90000
     5,'A5          ', 345.0000,1,   1,   1,   1,1.00096, -17.1652,1.05000,0.95000,1.10000,0.90000
     6,'A6          ', 345.0000,1,   1,   1,   1,1.00098, -17.1787,1.05000,0.95000,1.10000,0.90000
     7,'A7          ', 345.0000,1,   1,   1,   1,0.99878, -16.8658,1.05000,0.95000,1.10000,0.90000
     8,'A8          ', 345.0000,1,   1,   1,   1,0.99881, -16.8712,1.05000,0.95000,1.10000,0.90000
     9,'A9          ', 345.0000,2,   1,   1,   1,1.00363, -14.8990,1.05000,0.95000,1.10000,0.90000
    10,'A10         ', 345.0000,2,   1,   1,   1,1.00358, -14.8510,1.05000,0.95000,1.10000,0.90000
    11,'A11         ', 138.0000,2,   1,   1,   1,1.00466, -17.3117,1.05000,0.95000,1.10000,0.90000
    12,'A12         ', 138.0000,2,   1,   1,   1,1.00126, -17.4800,1.05000,0.95000,1.10000,0.90000
    13,'A13         ', 138.0000,1,   1,   1,   1,1.00422, -17.0497,1.05000,0.95000,1.10000,0.90000
    14,'A14         ', 138.0000,1,   1,   1,   1,1.00125, -17.6364,1.05000,0.95000,1.10000,0.90000
    15,'A15         ', 138.0000,1,   1,   1,   1,1.00292, -17.2619,1.05000,0.95000,1.10000,0.90000
    16,'A16         ', 138.0000,1,   1,   1,   1,1.00292, -17.2616,1.05000,0.95000,1.10000,0.90000
    17,'A17         ', 138.0000,1,   1,   1,   1,1.00610, -17.2990,1.05000,0.95000,1.10000,0.90000
    18,'A18         ', 138.0000,1,   1,   1,   1,1.00575, -15.8554,1.05000,0.95000,1.10000,0.90000
    19,'A19         ', 138.0000,1,   1,   1,   1,1.00570, -15.8350,1.05000,0.95000,1.10000,0.90000
    20,'A20         ', 138.0000,2,   1,   1,   1,1.00695, -17.2416,1.05000,0.95000,1.10000,0.90000
    21,'A21         ', 138.0000,1,   1,   1,   1,0.98255, -19.6676,1.05000,0.95000,1.10000,0.90000
    22,'A22         ', 138.0000,1,   1,   1,   1,0.98267, -19.6649,1.05000,0.95000,1.10000,0.90000
    23,'A23         ', 138.0000,1,   1,   1,   1,1.00238, -19.1633,1.05000,0.95000,1.10000,0.90000
    24,'A24         ', 138.0000,2,   1,   1,   1,1.00540, -18.8664,1.05000,0.95000,1.10000,0.90000
    25,'A25         ', 138.0000,2,   1,   1,   1,1.00299, -17.3982,1.05000,0.95000,1.10000,0.90000
    26,'A26         ', 138.0000,2,   1,   1,   1,1.00304, -17.3994,1.05000,0.95000,1.10000,0.90000
    27,'A27         ', 138.0000,1,   1,   1,   1,1.00427, -17.2164,1.05000,0.95000,1.10000,0.90000
    28,'A28         ', 138.0000,1,   1,   1,   1,1.00452, -17.2030,1.05000,0.95000,1.10000,0.90000
    29,'A29         ', 138.0000,1,   1,   1,   1,1.00538, -16.6434,1.05000,0.95000,1.10000,0.90000
    30,'A30         ', 138.0000,1,   1,   1,   1,1.00540, -16.6421,1.05000,0.95000,1.10000,0.90000
    31,'A31         ', 138.0000,1,   1,   1,   1,0.98327, -20.6866,1.05000,0.95000,1.10000,0.90000
    32,'A32         ', 138.0000,2,   1,   1,   1,0.98325, -20.7211,1.05000,0.95000,1.10000,0.90000
    33,'A33         ', 138.0000,1,   1,   1,   1,1.00542, -15.2713,1.05000,0.95000,1.10000,0.90000
    34,'A34         ', 138.0000,1,   1,   1,   1,1.00566, -15.2597,1.05000,0.95000,1.10000,0.90000
    35,'A35         ', 138.0000,1,   1,   1,   1,1.00312, -17.3380,1.05000,0.95000,1.10000,0.90000
    36,'A36         ', 138.0000,1,   1,   1,   1,1.00396, -17.1493,1.05000,0.95000,1.10000,0.90000
    37,'A37         ', 138.0000,1,   1,   1,   1,1.00313, -17.3374,1.05000,0.95000,1.10000,0.90000
    38,'A38         ', 138.0000,1,   1,   1,   1,1.00396, -17.1493,1.05000,0.95000,1.10000,0.90000
    39,'A39         ', 138.0000,1,   1,   1,   1,0.99571, -24.6153,1.05000,0.95000,1.10000,0.90000
    40,'A40         ', 138.0000,1,   1,   1,   1,1.00406, -17.2363,1.05000,0.95000,1.10000,0.90000
    41,'A41         ', 138.0000,1,   1,   1,   1,1.00406, -17.2393,1.05000,0.95000,1.10000,0.90000
    42,'A42         ', 138.0000,1,   1,   1,   1,1.00740, -16.3837,1.05000,0.95000,1.10000,0.90000
    43,'A43         ', 138.0000,1,   1,   1,   1,1.00743, -16.3816,1.05000,0.95000,1.10000,0.90000
    44,'A44         ', 138.0000,1,   1,   1,   1,0.98063, -19.6007,1.05000,0.95000,1.10000,0.90000
    45,'A45         ', 138.0000,1,   1,   1,   1,0.98059, -19.6097,1.05000,0.95000,1.10000,0.90000
    46,'A46         ', 138.0000,2,   1,   1,   1,0.99758, -19.5236,1.05000,0.95000,1.10000,0.90000
    47,'A47         ', 138.0000,1,   1,   1,   1,0.98973, -18.9693,1.05000,0.95000,1.10000,0.90000
    48,'A48         ', 138.0000,1,   1,   1,   1,0.98958, -18.9719,1.05000,0.95000,1.10000,0.90000
    49,'A49         ', 138.0000,1,   1,   1,   1,0.99511, -25.5934,1.05000,0.95000,1.10000,0.90000
    50,'A50         ', 138.0000,1,   1,   1,   1,1.00020, -20.8961,1.05000,0.95000,1.10000,0.90000
    51,'A51         ', 138.0000,1,   1,   1,   1,1.00020, -20.8961,1.05000,0.95000,1.10000,0.90000
    52,'A52         ', 138.0000,1,   1,   1,   1,0.98389, -19.5448,1.05000,0.95000,1.10000,0.90000
    53,'A53         ', 138.0000,2,   1,   1,   1,0.99746, -19.1493,1.05000,0.95000,1.10000,0.90000
    54,'A54         ', 138.0000,1,   1,   1,   1,1.00341, -16.9435,1.05000,0.95000,1.10000,0.90000
    55,'A55         ', 138.0000,1,   1,   1,   1,1.00347, -16.9638,1.05000,0.95000,1.10000,0.90000
    56,'A56         ', 138.0000,1,   1,   1,   1,1.00026, -21.0215,1.05000,0.95000,1.10000,0.90000
    57,'A57         ', 138.0000,1,   1,   1,   1,0.99998, -20.9732,1.05000,0.95000,1.10000,0.90000
    58,'A58         ', 138.0000,1,   1,   1,   1,1.00264, -17.3208,1.05000,0.95000,1.10000,0.90000
    59,'A59         ', 138.0000,1,   1,   1,   1,1.00582, -16.9642,1.05000,0.95000,1.10000,0.90000
    60,'A60         ', 138.0000,1,   1,   1,   1,0.98559, -18.9912,1.05000,0.95000,1.10000,0.90000
    61,'A61         ', 138.0000,1,   1,   1,   1,0.98561, -18.9893,1.05000,0.95000,1.10000,0.90000
    62,'A62         ', 138.0000,1,   1,   1,   1,1.00576, -15.8546,1.05000,0.95000,1.10000,0.90000
    63,'A63         ', 138.0000,1,   1,   1,   1,1.00571, -15.8346,1.05000,0.95000,1.10000,0.90000
    64,'A64         ', 138.0000,1,   1,   1,   1,1.00340, -17.1558,1.05000,0.95000,1.10000,0.90000
    65,'A65         ', 138.0000,1,   1,   1,   1,1.00540, -16.6377,1.05000,0.95000,1.10000,0.90000
    66,'A66         ', 138.0000,1,   1,   1,   1,0.99789, -21.7249,1.05000,0.95000,1.10000,0.90000
    67,'A67         ', 138.0000,2,   1,   1,   1,0.99788, -21.7343,1.05000,0.95000,1.10000,0.90000
    68,'A68         ', 138.0000,2,   1,   1,   1,1.00858, -14.2689,1.05000,0.95000,1.10000,0.90000
    69,'A69         ', 138.0000,1,   1,   1,   1,0.99241, -18.9173,1.05000,0.95000,1.10000,0.90000
    70,'A70         ', 138.0000,1,   1,   1,   1,0.97721, -19.9246,1.05000,0.95000,1.10000,0.90000
    71,'B71         ', 345.0000,1,   2,   2,   1,0.99105, -13.9684,1.05000,0.95000,1.10000,0.90000
    72,'B72         ', 345.0000,1,   2,   2,   1,0.99105, -13.9684,1.05000,0.95000,1.10000,0.90000
    73,'B73         ', 345.0000,1,   2,   2,   1,1.00085, -11.8429,1.05000,0.95000,1.10000,0.90000
    74,'B74         ', 345.0000,1,   2,   2,   1,1.00085, -11.8429,1.05000,0.95000,1.10000,0.90000
    75,'B75         ', 345.0000,2,   2,   2,   1,1.00774, -13.8038,1.05000,0.95000,1.10000,0.90000
    76,'B76         ', 345.0000,2,   2,   2,   1,1.00788, -13.8024,1.05000,0.95000,1.10000,0.90000
    77,'B77         ', 500.0000,2,   2,   2,   1,1.00260, -16.2064,1.05000,0.95000,1.10000,0.90000
    78,'B78         ', 345.0000,2,   2,   2,   1,0.99160, -13.4964,1.05000,0.95000,1.10000,0.90000
    79,'B79         ', 345.0000,1,   2,   2,   1,0.99073, -13.1079,1.05000,0.95000,1.10000,0.90000
    80,'B80         ', 345.0000,1,   2,   2,   1,0.99073, -13.1079,1.05000,0.95000,1.10000,0.90000
    81,'B81         ', 345.0000,1,   2,   2,   1,0.99083, -13.9087,1.05000,0.95000,1.10000,0.90000
    82,'B82         ', 345.0000,1,   2,   2,   1,0.99083, -13.9064,1.05000,0.95000,1.10000,0.90000
    83,'B83         ', 138.0000,1,   2,   2,   1,0.97041, -14.8243,1.05000,0.95000,1.10000,0.90000
    84,'B84         ', 138.0000,1,   2,   2,   1,0.98016, -13.3896,1.05000,0.95000,1.10000,0.90000
    85,'B85         ', 138.0000,1,   2,   2,   1,1.00525, -12.6675,1.05000,0.95000,1.10000,0.90000
    86,'B86         ', 138.0000,1,   2,   2,   1,1.00020, -16.1249,1.05000,0.95000,1.10000,0.90000
    87,'B87         ', 138.0000,1,   2,   2,   1,0.97360,  -9.8710,1.05000,0.95000,1.10000,0.90000
    88,'B88         ', 138.0000,1,   2,   2,   1,0.98555,  -9.4010,1.05000,0.95000,1.10000,0.90000
    89,'B89         ', 138.0000,1,   2,   2,   1,0.98004, -14.5567,1.05000,0.95000,1.10000,0.90000
    90,'B90         ', 138.0000,2,   2,   2,   1,0.97826, -16.5051,1.05000,0.95000,1.10000,0.90000
    91,'B91         ', 138.0000,1,   2,   2,   1,0.99020,  -7.0956,1.05000,0.95000,1.10000,0.90000
    92,'B92         ', 138.0000,2,   2,   2,   1,1.00542, -12.6496,1.05000,0.95000,1.10000,0.90000
    93,'B93         ', 138.0000,1,   2,   2,   1,1.00542, -12.6496,1.05000,0.95000,1.10000,0.90000
    94,'B94         ', 138.0000,1,   2,   2,   1,0.96657, -14.3047,1.05000,0.95000,1.10000,0.90000
    95,'B95         ', 138.0000,2,   2,   2,   1,0.95658, -18.5829,1.05000,0.95000,1.10000,0.90000
    96,'B96         ', 138.0000,2,   2,   2,   1,0.97415, -14.9791,1.05000,0.95000,1.10000,0.90000
    97,'B97         ', 138.0000,1,   2,   2,   1,0.97396, -14.9891,1.05000,0.95000,1.10000,0.90000
    98,'B98         ', 138.0000,2,   2,   2,   1,1.00358, -11.0197,1.05000,0.95000,1.10000,0.90000
    99,'B99         ', 138.0000,2,   2,   2,   1,1.00788,  -9.5997,1.05000,0.95000,1.10000,0.90000
   100,'B100        ', 138.0000,1,   2,   2,   1,0.96565, -15.6325,1.05000,0.95000,1.10000,0.90000
   101,'B101        ', 138.0000,1,   2,   2,   1,0.99922, -13.1062,1.05000,0.95000,1.10000,0.90000
   102,'B102        ', 138.0000,1,   2,   2,   1,0.96805, -14.9656,1.05000,0.95000,1.10000,0.90000
   103,'B103        ', 138.0000,1,   2,   2,   1,1.00294, -11.1162,1.05000,0.95000,1.10000,0.90000
   104,'B104        ', 138.0000,1,   2,   2,   1,0.95765, -17.0690,1.05000,0.95000,1.10000,0.90000
   105,'B105        ', 138.0000,1,   2,   2,   1,1.00616, -12.7384,1.05000,0.95000,1.10000,0.90000
   106,'B106        ', 138.0000,1,   2,   2,   1,0.98524, -14.2328,1.05000,0.95000,1.10000,0.90000
   107,'B107        ', 138.0000,1,   2,   2,   1,0.97947, -12.4351,1.05000,0.95000,1.10000,0.90000
   108,'B108        ', 138.0000,1,   2,   2,   1,0.97273, -14.9682,1.05000,0.95000,1.10000,0.90000
   109,'B109        ', 138.0000,1,   2,   2,   1,0.98505, -14.4369,1.05000,0.95000,1.10000,0.90000
   110,'B110        ', 138.0000,1,   2,   2,   1,0.97442, -11.7885,1.05000,0.95000,1.10000,0.90000
   111,'B111        ', 138.0000,1,   2,   2,   1,0.96332, -15.9722,1.05000,0.95000,1.10000,0.90000
   112,'B112        ', 138.0000,2,   2,   2,   1,0.98681, -14.2887,1.05000,0.95000,1.10000,0.90000
   113,'B113        ', 138.0000,1,   2,   2,   1,0.97581,  -9.5637,1.05000,0.95000,1.10000,0.90000
   114,'B114        ', 138.0000,1,   2,   2,   1,0.97991, -13.5415,1.05000,0.95000,1.10000,0.90000
   115,'B115        ', 138.0000,1,   2,   2,   1,0.98455, -13.0255,1.05000,0.95000,1.10000,0.90000
   116,'B116        ', 138.0000,1,   2,   2,   1,0.95878, -16.4386,1.05000,0.95000,1.10000,0.90000
   117,'B117        ', 138.0000,1,   2,   2,   1,0.95859, -19.4529,1.05000,0.95000,1.10000,0.90000
   118,'B118        ', 138.0000,1,   2,   2,   1,0.97090, -14.9739,1.05000,0.95000,1.10000,0.90000
   119,'B119        ', 138.0000,1,   2,   2,   1,0.97143, -12.7173,1.05000,0.95000,1.10000,0.90000
   120,'B120        ', 138.0000,2,   2,   2,   1,0.98449, -14.2416,1.05000,0.95000,1.10000,0.90000
   121,'B121        ', 138.0000,1,   2,   2,   1,0.98438, -14.2464,1.05000,0.95000,1.10000,0.90000
   122,'B122        ', 138.0000,1,   2,   2,   1,0.96680, -15.1955,1.05000,0.95000,1.10000,0.90000
   123,'B123        ', 138.0000,1,   2,   2,   1,0.97592, -14.8525,1.05000,0.95000,1.10000,0.90000
   124,'B124        ', 138.0000,2,   2,   2,   1,0.97020, -14.7577,1.05000,0.95000,1.10000,0.90000
   125,'B125        ', 138.0000,2,   2,   2,   1,0.97002, -14.7497,1.05000,0.95000,1.10000,0.90000
   126,'B126        ', 138.0000,1,   2,   2,   1,0.98062, -14.0282,1.05000,0.95000,1.10000,0.90000
   127,'B127        ', 138.0000,2,   2,   2,   1,0.96208, -16.1167,1.05000,0.95000,1.10000,0.90000
   128,'B128        ', 138.0000,2,   2,   2,   1,0.96215, -16.1294,1.05000,0.95000,1.10000,0.90000
   129,'B129        ', 138.0000,1,   2,   2,   1,0.97407, -14.9833,1.05000,0.95000,1.10000,0.90000
   130,'B130        ', 138.0000,1,   2,   2,   1,0.97516,  -9.6080,1.05000,0.95000,1.10000,0.90000
   131,'B131        ', 138.0000,1,   2,   2,   1,0.98616, -14.3329,1.05000,0.95000,1.10000,0.90000
   132,'B132        ', 138.0000,1,   2,   2,   1,0.95891, -16.4917,1.05000,0.95000,1.10000,0.90000
   133,'B133        ', 138.0000,1,   2,   2,   1,0.95742, -16.5542,1.05000,0.95000,1.10000,0.90000
   134,'B134        ', 138.0000,1,   2,   2,   1,0.95796, -16.5110,1.05000,0.95000,1.10000,0.90000
   135,'B135        ', 138.0000,2,   2,   2,   1,1.00718,  -2.6727,1.05000,0.95000,1.10000,0.90000
   136,'B136        ', 138.0000,2,   2,   2,   1,0.97275, -14.7350,1.05000,0.95000,1.10000,0.90000
   137,'B137        ', 138.0000,1,   2,   2,   1,0.97355, -15.0195,1.05000,0.95000,1.10000,0.90000
   138,'B138        ', 138.0000,2,   2,   2,   1,0.95791, -19.0953,1.05000,0.95000,1.10000,0.90000
   139,'B139        ', 138.0000,1,   2,   2,   1,0.96999, -14.9388,1.05000,0.95000,1.10000,0.90000
   140,'B140        ', 138.0000,1,   2,   2,   1,1.00295, -13.9570,1.05000,0.95000,1.10000,0.90000
   141,'B141        ', 138.0000,1,   2,   2,   1,0.97277,  -9.9749,1.05000,0.95000,1.10000,0.90000
   142,'B142        ', 138.0000,1,   2,   2,   1,0.95945, -16.4486,1.05000,0.95000,1.10000,0.90000
   143,'B143        ', 138.0000,1,   2,   2,   1,0.98526, -12.8900,1.05000,0.95000,1.10000,0.90000
   144,'B144        ', 138.0000,1,   2,   2,   1,0.97810, -14.6120,1.05000,0.95000,1.10000,0.90000
   145,'B145        ', 138.0000,1,   2,   2,   1,0.98597, -14.2584,1.05000,0.95000,1.10000,0.90000
   146,'B146        ', 138.0000,1,   2,   2,   1,0.97242, -15.1161,1.05000,0.95000,1.10000,0.90000
   147,'B147        ', 138.0000,1,   2,   2,   1,0.97796, -14.6209,1.05000,0.95000,1.10000,0.90000
   148,'B148        ', 138.0000,1,   2,   2,   1,0.96742, -15.2259,1.05000,0.95000,1.10000,0.90000
   149,'B149        ', 138.0000,1,   2,   2,   1,0.97049, -13.5756,1.05000,0.95000,1.10000,0.90000
   150,'B150        ', 345.0000,2,   2,   2,   1,1.00794, -14.5391,1.05000,0.95000,1.10000,0.90000
   151,'C151        ', 345.0000,1,   3,   3,   1,0.99304, -12.3672,1.05000,0.95000,1.10000,0.90000
   152,'C152        ', 500.0000,1,   3,   3,   1,0.99979, -11.5041,1.05000,0.95000,1.10000,0.90000
   153,'C153        ', 500.0000,2,   3,   3,   1,0.99977, -11.4979,1.05000,0.95000,1.10000,0.90000
   154,'C154        ', 500.0000,1,   3,   3,   1,0.99522, -15.3395,1.05000,0.95000,1.10000,0.90000
   155,'C155        ', 500.0000,1,   3,   3,   1,0.99527, -15.3106,1.05000,0.95000,1.10000,0.90000
   156,'C156        ', 500.0000,1,   3,   3,   1,1.00572, -20.3681,1.05000,0.95000,1.10000,0.90000
   157,'C157        ', 345.0000,2,   3,   3,   1,0.98949, -19.8300,1.05000,0.95000,1.10000,0.90000
   158,'C158        ', 500.0000,2,   3,   3,   1,0.96233, -19.9604,1.05000,0.95000,1.10000,0.90000
   159,'C159        ', 500.0000,1,   3,   3,   1,0.96233, -19.9604,1.05000,0.95000,1.10000,0.90000
   160,'C160        ', 500.0000,1,   3,   3,   1,0.98504, -14.5177,1.05000,0.95000,1.10000,0.90000
   161,'C161        ', 500.0000,2,   3,   3,   1,0.98479, -14.5131,1.05000,0.95000,1.10000,0.90000
   162,'C162        ', 500.0000,1,   3,   3,   1,0.99805, -13.8889,1.05000,0.95000,1.10000,0.90000
   163,'C163        ', 500.0000,1,   3,   3,   1,1.00758, -11.4167,1.05000,0.95000,1.10000,0.90000
   164,'C164        ', 500.0000,1,   3,   3,   1,1.00751, -11.4185,1.05000,0.95000,1.10000,0.90000
   165,'C165        ', 500.0000,2,   3,   3,   1,1.00430, -13.2213,1.05000,0.95000,1.10000,0.90000
   166,'C166        ', 500.0000,2,   3,   3,   1,1.00445, -13.2308,1.05000,0.95000,1.10000,0.90000
   167,'C167        ', 138.0000,1,   3,   3,   1,1.00261,  -7.0831,1.05000,0.95000,1.10000,0.90000
   168,'C168        ', 138.0000,2,   3,   3,   1,1.00104, -14.6873,1.05000,0.95000,1.10000,0.90000
   169,'C169        ', 138.0000,2,   3,   3,   1,1.00079, -14.6798,1.05000,0.95000,1.10000,0.90000
   170,'C170        ', 138.0000,1,   3,   3,   1,1.00040, -15.4990,1.05000,0.95000,1.10000,0.90000
   171,'C171        ', 138.0000,2,   3,   3,   1,1.00664,  -3.4994,1.05000,0.95000,1.10000,0.90000
   172,'C172        ', 138.0000,1,   3,   3,   1,0.97933, -18.6834,1.05000,0.95000,1.10000,0.90000
   173,'C173        ',  32.0000,1,   3,   3,   1,1.02991, -20.5081,1.05000,0.95000,1.10000,0.90000
   174,'C174        ', 138.0000,1,   3,   3,   1,0.99257, -16.0837,1.05000,0.95000,1.10000,0.90000
   175,'C175        ', 138.0000,1,   3,   3,   1,0.99481, -15.2505,1.05000,0.95000,1.10000,0.90000
   176,'C176        ', 138.0000,1,   3,   3,   1,0.99481, -15.2427,1.05000,0.95000,1.10000,0.90000
   177,'C177        ', 138.0000,2,   3,   3,   1,1.00734, -12.0176,1.05000,0.95000,1.10000,0.90000
   178,'C178        ', 138.0000,2,   3,   3,   1,1.00788, -11.8903,1.05000,0.95000,1.10000,0.90000
   179,'C179        ', 138.0000,1,   3,   3,   1,0.99304, -15.4650,1.05000,0.95000,1.10000,0.90000
   180,'C180        ', 138.0000,1,   3,   3,   1,0.99457, -15.2684,1.05000,0.95000,1.10000,0.90000
   181,'C181        ', 138.0000,1,   3,   3,   1,0.99246, -16.0587,1.05000,0.95000,1.10000,0.90000
   182,'C182        ', 138.0000,1,   3,   3,   1,0.99591, -15.1552,1.05000,0.95000,1.10000,0.90000
   183,'C183        ', 138.0000,2,   3,   3,   1,1.00718,  -3.1095,1.05000,0.95000,1.10000,0.90000
   184,'C184        ', 138.0000,1,   3,   3,   1,1.00695,  -3.6689,1.05000,0.95000,1.10000,0.90000
   185,'C185        ', 138.0000,2,   3,   3,   1,1.00980, -14.8578,1.05000,0.95000,1.10000,0.90000
   186,'C186        ', 138.0000,1,   3,   3,   1,0.99720, -15.0331,1.05000,0.95000,1.10000,0.90000
   187,'C187        ',  16.0000,1,   3,   3,   1,1.02160, -14.0035,1.05000,0.95000,1.10000,0.90000
   188,'C188        ', 138.0000,2,   3,   3,   1,1.00788, -10.4717,1.05000,0.95000,1.10000,0.90000
   189,'C189        ', 138.0000,1,   3,   3,   1,0.99295,  -7.1146,1.05000,0.95000,1.10000,0.90000
   190,'C190        ', 138.0000,1,   3,   3,   1,0.97940, -18.6847,1.05000,0.95000,1.10000,0.90000
   191,'C191        ', 138.0000,1,   3,   3,   1,0.99243, -15.5785,1.05000,0.95000,1.10000,0.90000
   192,'C192        ', 138.0000,1,   3,   3,   1,0.99886, -13.6434,1.05000,0.95000,1.10000,0.90000
   193,'C193        ', 138.0000,1,   3,   3,   1,0.99984, -14.3468,1.05000,0.95000,1.10000,0.90000
   194,'C194        ', 138.0000,2,   3,   3,   1,0.99225, -16.1078,1.05000,0.95000,1.10000,0.90000
   195,'C195        ', 138.0000,2,   3,   3,   1,1.00788,  -4.0102,1.05000,0.95000,1.10000,0.90000
   196,'C196        ', 138.0000,1,   3,   3,   1,0.99157,  -7.3045,1.05000,0.95000,1.10000,0.90000
   197,'C197        ', 138.0000,1,   3,   3,   1,0.99260,  -7.1472,1.05000,0.95000,1.10000,0.90000
   198,'C198        ', 138.0000,1,   3,   3,   1,1.00696,  -3.7855,1.05000,0.95000,1.10000,0.90000
   199,'C199        ', 138.0000,1,   3,   3,   1,0.99673,  -6.6731,1.05000,0.95000,1.10000,0.90000
   200,'C200        ', 138.0000,1,   3,   3,   1,0.99668,  -6.5681,1.05000,0.95000,1.10000,0.90000
...
0 / END OF BUS DATA, BEGIN LOAD DATA
     2,'99',0,   1,   1,    13.121,    -7.435,     0.000,     0.000,     0.000,     0.000,   1,1,0
     3,'1 ',1,   1,   1,     1.873,     1.287,     0.000,     0.000,     0.000,     0.000,   1,1,0
     4,'99',0,   1,   1,    26.870,    -9.742,     0.000,     0.000,     0.000,     0.000,   1,1,0
     6,'99',0,   1,   1,    79.520,    41.295,     0.000,     0.000,     0.000,     0.000,   1,1,0
     9,'1 ',1,   1,   1,    12.264,    25.075,     0.000,     0.000,     0.000,     0.000,   1,1,0
     9,'99',1,   1,   1,   136.847,   -94.914,     0.000,     0.000,     0.000,     0.000,   1,1,0
    10,'1 ',1,   1,   1,    27.979,    49.199,     0.000,     0.000,     0.000,     0.000,   1,1,0
    11,'1 ',1,   1,   1,     8.430,     5.061,     0.000,     0.000,     0.000,     0.000,   1,1,0
    12,'1 ',1,   1,   1,     1.348,     2.695,     0.000,     0.000,     0.000,     0.000,   1,1,0
    12,'99',1,   1,   1,    12.795,     4.508,     0.000,     0.000,     0.000,     0.000,   1,1,0
    13,'1 ',1,   1,   1,     4.266,     1.678,     0.000,     0.000,     0.000,     0.000,   1,1,0
    14,'1 ',1,   1,   1,     2.952,     0.660,     0.000,     0.000,     0.000,     0.000,   1,1,0
    14,'99',1,   1,   1,    10.825,     4.624,     0.000,     0.000,     0.000,     0.000,   1,1,0
    15,'1 ',1,   1,   1,     0.290,     0.067,     0.000,     0.000,     0.000,     0.000,   1,1,0
    17,'1 ',1,   1,   1,     7.197,     3.113,     0.000,     0.000,     0.000,     0.000,   1,1,0
    18,'1 ',1,   1,   1,     1.658,     0.539,     0.000,     0.000,     0.000,     0.000,   1,1,0
    19,'1 ',1,   1,   1,     1.011,     0.337,     0.000,     0.000,     0.000,     0.000,   1,1,0
    20,'1 ',1,   1,   1,     1.078,    -0.364,     0.000,     0.000,     0.000,     0.000,   1,1,0
    20,'99',1,   1,   1,    12.764,   -23.617,     0.000,     0.000,     0.000,     0.000,   1,1,0
    21,'1 ',1,   1,   1,     9.818,     2.089,     0.000,     0.000,     0.000,     0.000,   1,1,0
    23,'1 ',1,   1,   1,    26.955,     0.000,     0.000,     0.000,     0.000,     0.000,   1,1,0
    23,'99',1,   1,   1,     1.689,    -8.671,     0.000,     0.000,     0.000,     0.000,   1,1,0
    24,'1 ',1,   1,   1,     5.755,     3.383,     0.000,     0.000,     0.000,     0.000,   1,1,0
    25,'1 ',1,   1,   1,     0.000,    -0.270,     0.000,     0.000,     0.000,     0.000,   1,1,0
    26,'1 ',1,   1,   1,    23.862,     8.498,     0.000,     0.000,     0.000,     0.000,   1,1,0
    27,'1 ',1,   1,   1,     3.026,     1.011,     0.000,     0.000,     0.000,     0.000,   1,1,0
    29,'1 ',1,   1,   1,     6.409,     2.500,     0.000,     0.000,     0.000,     0.000,   1,1,0
    31,'1 ',1,   1,   1,     3.309,     1.152,     0.000,     0.000,     0.000,     0.000,   1,1,0
    32,'1 ',1,   1,   1,     4.751,     2.365,     0.000,     0.000,     0.000,     0.000,   1,1,0
    33,'1 ',1,   1,   1,     4.751,     3.113,     0.000,     0.000,     0.000,     0.000,   1,1,0
    35,'1 ',1,   1,   1,     1.078,     0.337,     0.000,     0.000,     0.000,     0.000,   1,1,0
    39,'1 ',1,   1,   1,     3.174,     0.323,     0.000,     0.000,     0.000,     0.000,   1,1,0
    39,'99',0,   1,   1,    12.258,    -0.483,     0.000,     0.000,     0.000,     0.000,   1,1,0
    41,'1 ',1,   1,   1,     1.152,     0.404,     0.000,     0.000,     0.000,     0.000,   1,1,0
    42,'1 ',1,   1,   1,     4.104,     0.606,     0.000,     0.000,     0.000,     0.000,   1,1,0
    43,'99',0,   1,   1,    14.328,     3.859,     0.000,     0.000,     0.000,     0.000,   1,1,0
    44,'1 ',1,   1,   1,     2.999,     0.526,     0.000,     0.000,     0.000,     0.000,   1,1,0
    44,'99',1,   1,   1,     7.681,     5.074,     0.000,     0.000,     0.000,     0.000,   1,1,0
    45,'1 ',1,   1,   1,     3.336,     1.536,     0.000,     0.000,     0.000,     0.000,   1,1,0
    46,'1 ',1,   1,   1,     6.267,     2.102,     0.000,     0.000,     0.000,     0.000,   1,1,0
    46,'99',1,   1,   1,    18.793,     8.413,     0.000,     0.000,     0.000,     0.000,   1,1,0
    47,'1 ',1,   1,   1,     7.891,     2.824,     0.000,     0.000,     0.000,     0.000,   1,1,0
    48,'1 ',1,   1,   1,     0.000,     0.101,     0.000,     0.000,     0.000,     0.000,   1,1,0
    49,'1 ',1,   1,   1,    12.076,     2.837,     0.000,     0.000,     0.000,     0.000,   1,1,0
    49,'99',0,   1,   1,    23.502,    -4.087,     0.000,     0.000,     0.000,     0.000,   1,1,0
    52,'1 ',1,   1,   1,    12.527,     3.989,     0.000,     0.000,     0.000,     0.000,   1,1,0
    53,'1 ',1,   1,   1,     5.337,     2.170,     0.000,     0.000,     0.000,     0.000,   1,1,0
    54,'1 ',1,   1,   1,     2.594,     1.422,     0.000,     0.000,     0.000,     0.000,   1,1,0
    55,'1 ',1,   1,   1,     0.216,     0.000,     0.000,     0.000,     0.000,     0.000,   1,1,0
    56,'1 ',1,   1,   1,     4.764,     1.766,     0.000,     0.000,     0.000,     0.000,   1,1,0
    57,'1 ',1,   1,   1,     2.810,     1.004,     0.000,     0.000,     0.000,     0.000,   1,1,0
    58,'1 ',1,   1,   1,     2.669,     0.937,     0.000,     0.000,     0.000,     0.000,   1,1,0
    58,'99',1,   1,   1,    30.925,    -4.896,     0.000,     0.000,     0.000,     0.000,   1,1,0
    59,'1 ',1,   1,   1,     4.468,     1.503,     0.000,     0.000,     0.000,     0.000,   1,1,0
    60,'1 ',1,   1,   1,     1.011,     0.270,     0.000,     0.000,     0.000,     0.000,   1,1,0
    61,'99',1,   1,   1,     6.051,    16.352,     0.000,     0.000,     0.000,     0.000,   1,1,0
    63,'1 ',1,   1,   1,     3.167,     1.044,     0.000,     0.000,     0.000,     0.000,   1,1,0
    64,'1 ',1,   1,   1,     1.584,     0.539,     0.000,     0.000,     0.000,     0.000,   1,1,0
    65,'1 ',1,   1,   1,     1.442,     0.472,     0.000,     0.000,     0.000,     0.000,   1,1,0
    66,'1 ',1,   1,   1,     4.980,     1.840,     0.000,     0.000,     0.000,     0.000,   1,1,0
    67,'1 ',1,   1,   1,     6.503,     2.514,     0.000,     0.000,     0.000,     0.000,   1,1,0
    68,'1 ',1,   1,   1,    11.591,    22.784,     0.000,     0.000,     0.000,     0.000,   1,1,0
    70,'1 ',1,   1,   1,    16.847,     4.717,     0.000,     0.000,     0.000,     0.000,   1,1,0
    75,'1 ',1,   2,   2,     8.086,    20.216,     0.000,     0.000,     0.000,     0.000,   1,1,0
    76,'1 ',1,   2,   2,    13.417,    24.643,     0.000,     0.000,     0.000,     0.000,   1,1,0
    77,'1 ',1,   2,   2,     8.086,    20.216,     0.000,     0.000,     0.000,     0.000,   1,1,0
    83,'1 ',1,   2,   2,     7.716,     1.779,     0.000,     0.000,     0.000,     0.000,   1,1,0
    84,'1 ',1,   2,   2,    17.460,     4.326,     0.000,     0.000,     0.000,     0.000,   1,1,0
    86,'1 ',1,   2,   2,     4.070,     1.631,     0.000,     0.000,     0.000,     0.000,   1,1,0
    86,'99',0,   2,   2,     9.663,     6.313,     0.000,     0.000,     0.000,     0.000,   1,1,0
    87,'1 ',1,   2,   2,     2.035,     0.856,     0.000,     0.000,     0.000,     0.000,   1,1,0
    88,'1 ',1,   2,   2,     4.468,     0.431,     0.000,     0.000,     0.000,     0.000,   1,1,0
    89,'1 ',1,   2,   2,     8.417,     3.268,     0.000,     0.000,     0.000,     0.000,   1,1,0
    90,'1 ',1,   2,   2,     2.446,     0.357,     0.000,     0.000,     0.000,     0.000,   1,1,0
    91,'1 ',1,   2,   2,     2.386,     0.782,     0.000,     0.000,     0.000,     0.000,   1,1,0
    92,'1 ',1,   2,   2,    12.952,    22.170,     0.000,     0.000,     0.000,     0.000,   1,1,0
    94,'1 ',1,   2,   2,     1.543,     0.566,     0.000,     0.000,     0.000,     0.000,   1,1,0
    95,'1 ',1,   2,   2,     3.160,     1.287,     0.000,     0.000,     0.000,     0.000,   1,1,0
    96,'1 ',1,   2,   2,     0.067,    -0.532,     0.000,     0.000,     0.000,     0.000,   1,1,0
    97,'1 ',1,   2,   2,     0.067,     0.034,     0.000,     0.000,     0.000,     0.000,   1,1,0
    97,'99',1,   2,   2,     3.689,     1.292,     0.000,     0.000,     0.000,     0.000,   1,1,0
    98,'1 ',1,   2,   2,     2.028,     3.376,     0.000,     0.000,     0.000,     0.000,   1,1,0
    98,'99',1,   2,   2,    11.607,    13.822,     0.000,     0.000,     0.000,     0.000,   1,1,0
    99,'1 ',1,   2,   2,     0.007,     0.007,     0.000,     0.000,     0.000,     0.000,   1,1,0
    99,'99',1,   2,   2,     8.461,     6.241,     0.000,     0.000,     0.000,     0.000,   1,1,0
   100,'1 ',1,   2,   2,     8.700,     3.194,     0.000,     0.000,     0.000,     0.000,   1,1,0
   101,'1 ',1,   2,   2,     6.314,     2.554,     0.000,     0.000,     0.000,     0.000,   1,1,0
   102,'1 ',1,   2,   2,     9.542,     3.834,     0.000,     0.000,     0.000,     0.000,   1,1,0
   103,'1 ',1,   2,   2,     7.682,     2.520,     0.000,     0.000,     0.000,     0.000,   1,1,0
   104,'1 ',1,   2,   2,     7.015,     2.561,     0.000,     0.000,     0.000,     0.000,   1,1,0
   107,'1 ',1,   2,   2,     3.700,     0.431,     0.000,     0.000,     0.000,     0.000,   1,1,0
   108,'1 ',1,   2,   2,     4.629,     1.348,     0.000,     0.000,     0.000,     0.000,   1,1,0
   109,'1 ',1,   2,   2,     3.787,     1.563,     0.000,     0.000,     0.000,     0.000,   1,1,0
   110,'1 ',1,   2,   2,     2.803,     1.139,     0.000,     0.000,     0.000,     0.000,   1,1,0
   111,'1 ',1,   2,   2,     0.984,     0.357,     0.000,     0.000,     0.000,     0.000,   1,1,0
   112,'1 ',1,   2,   2,     1.206,     0.512,     0.000,     0.000,     0.000,     0.000,   1,1,0
   113,'1 ',1,   2,   2,     1.125,     0.499,     0.000,     0.000,     0.000,     0.000,   1,1,0
   114,'1 ',1,   2,   2,     2.096,     0.580,     0.000,     0.000,     0.000,     0.000,   1,1,0
   115,'1 ',1,   2,   2,     3.214,     0.364,     0.000,     0.000,     0.000,     0.000,   1,1,0
   116,'1 ',1,   2,   2,     4.771,     1.206,     0.000,     0.000,     0.000,     0.000,   1,1,0
   117,'1 ',1,   2,   2,     7.716,     3.127,     0.000,     0.000,     0.000,     0.000,   1,1,0
   118,'1 ',1,   2,   2,     5.681,     2.271,     0.000,     0.000,     0.000,     0.000,   1,1,0
   119,'1 ',1,   2,   2,     4.562,    -1.146,     0.000,     0.000,     0.000,     0.000,   1,1,0
   120,'1 ',1,   2,   2,    14.738,     8.531,     0.000,     0.000,     0.000,     0.000,   1,1,0
   121,'1 ',1,   2,   2,    16.833,    15.627,     0.000,     0.000,     0.000,     0.000,   1,1,0
   122,'1 ',1,   2,   2,     9.818,     2.844,     0.000,     0.000,     0.000,     0.000,   1,1,0
   123,'1 ',1,   2,   2,    10.870,     3.194,     0.000,     0.000,     0.000,     0.000,   1,1,0
   124,'1 ',1,   2,   2,     3.598,     1.193,     0.000,     0.000,     0.000,     0.000,   1,1,0
   125,'1 ',1,   2,   2,     3.821,     3.935,     0.000,     0.000,     0.000,     0.000,   1,1,0
   126,'1 ',1,   2,   2,     5.189,     2.129,     0.000,     0.000,     0.000,     0.000,   1,1,0
   128,'1 ',1,   2,   2,     4.987,     1.712,     0.000,     0.000,     0.000,     0.000,   1,1,0
   129,'1 ',1,   2,   2,     0.809,     0.317,     0.000,     0.000,     0.000,     0.000,   1,1,0
   130,'1 ',1,   2,   2,     3.855,     1.563,     0.000,     0.000,     0.000,     0.000,   1,1,0
   131,'1 ',1,   2,   2,     3.929,     1.563,     0.000,     0.000,     0.000,     0.000,   1,1,0
   132,'1 ',1,   2,   2,     4.212,     1.173,     0.000,     0.000,     0.000,     0.000,   1,1,0
   133,'1 ',1,   2,   2,     4.212,     1.173,     0.000,     0.000,     0.000,     0.000,   1,1,0
   134,'1 ',1,   2,   2,     0.425,     0.142,     0.000,     0.000,     0.000,     0.000,   1,1,0
   135,'1 ',1,   2,   2,     8.848,     3.558,     0.000,     0.000,     0.000,     0.000,   1,1,0
   136,'1 ',1,   2,   2,     6.314,     2.433,     0.000,     0.000,     0.000,     0.000,   1,1,0
   137,'1 ',1,   2,   2,     3.154,     1.280,     0.000,     0.000,     0.000,     0.000,   1,1,0
   138,'1 ',1,   2,   2,     4.353,     1.712,     0.000,     0.000,     0.000,     0.000,   1,1,0
   139,'1 ',1,   2,   2,    14.663,     4.111,     0.000,     0.000,     0.000,     0.000,   1,1,0
   140,'1 ',1,   2,   2,     1.402,     0.566,     0.000,     0.000,     0.000,     0.000,   1,1,0
   141,'1 ',1,   2,   2,     1.826,     0.708,     0.000,     0.000,     0.000,     0.000,   1,1,0
   142,'1 ',1,   2,   2,     2.736,     0.357,     0.000,     0.000,     0.000,     0.000,   1,1,0
   146,'1 ',1,   2,   2,     5.681,     2.062,     0.000,     0.000,     0.000,     0.000,   1,1,0
   147,'1 ',1,   2,   2,     2.527,     0.566,     0.000,     0.000,     0.000,     0.000,   1,1,0
   148,'1 ',1,   2,   2,    19.010,     6.961,     0.000,     0.000,     0.000,     0.000,   1,1,0
   149,'1 ',1,   2,   2,     1.051,     0.425,     0.000,     0.000,     0.000,     0.000,   1,1,0
   150,'1 ',1,   2,   2,   427.234,     0.000,     0.000,     0.000,     0.000,     0.000,   1,1,0
   151,'99',1,   3,   3,    54.920,    57.883,     0.000,     0.000,     0.000,     0.000,   1,1,0
   156,'99',0,   3,   3,   154.603,    71.724,     0.000,     0.000,     0.000,     0.000,   1,1,0
   162,'99',1,   3,   3,    23.393,    40.541,     0.000,     0.000,     0.000,     0.000,   1,1,0
   165,'1 ',1,   3,   3,     7.413,    26.955,     0.000,     0.000,     0.000,     0.000,   1,1,0
   166,'1 ',1,   3,   3,     3.369,     6.739,     0.000,     0.000,     0.000,     0.000,   1,1,0
   167,'1 ',1,   3,   3,     4.670,     2.096,     0.000,     0.000,     0.000,     0.000,   1,1,0
   168,'1 ',1,   3,   3,     9.872,     0.674,     0.000,     0.000,     0.000,     0.000,   1,1,0
   169,'1 ',1,   3,   3,     5.485,     0.890,     0.000,     0.000,     0.000,     0.000,   1,1,0
   170,'1 ',1,   3,   3,     9.549,     2.844,     0.000,     0.000,     0.000,     0.000,   1,1,0
   171,'1 ',1,   3,   3,     2.844,     0.674,     0.000,     0.000,     0.000,     0.000,   1,1,0
   172,'99',1,   3,   3,    88.890,    38.449,     0.000,     0.000,     0.000,     0.000,   1,1,0
   175,'1 ',1,   3,   3,     3.518,     1.422,     0.000,     0.000,     0.000,     0.000,   1,1,0
   176,'1 ',1,   3,   3,     1.759,     0.674,     0.000,     0.000,     0.000,     0.000,   1,1,0
   177,'1 ',1,   3,   3,     0.007,     0.007,     0.000,     0.000,     0.000,     0.000,   1,1,0
   178,'1 ',1,   3,   3,     0.007,     0.007,     0.000,     0.000,     0.000,     0.000,   1,1,0
   179,'1 ',1,   3,   3,    10.560,     3.518,     0.000,     0.000,     0.000,     0.000,   1,1,0
   180,'1 ',1,   3,   3,    11.308,     3.181,     0.000,     0.000,     0.000,     0.000,   1,1,0
   181,'1 ',1,   3,   3,     2.844,     0.337,     0.000,     0.000,     0.000,     0.000,   1,1,0
   182,'1 ',1,   3,   3,     7.311,     0.674,     0.000,     0.000,     0.000,     0.000,   1,1,0
   183,'1 ',1,   3,   3,     9.886,     2.096,     0.000,     0.000,     0.000,     0.000,   1,1,0
   184,'1 ',1,   3,   3,     5.081,     0.674,     0.000,     0.000,     0.000,     0.000,   1,1,0
   185,'1 ',1,   3,   3,     1.422,     0.337,     0.000,     0.000,     0.000,     0.000,   1,1,0
   186,'1 ',1,   3,   3,     3.861,     0.674,     0.000,     0.000,     0.000,     0.000,   1,1,0
   188,'1 ',1,   3,   3,     6.368,     1.759,     0.000,     0.000,     0.000,     0.000,   1,1,0
   189,'1 ',1,   3,   3,     2.844,     0.674,     0.000,     0.000,     0.000,     0.000,   1,1,0
   191,'1 ',1,   3,   3,    10.560,     1.759,     0.000,     0.000,     0.000,     0.000,   1,1,0
   192,'1 ',1,   3,   3,    13.403,     4.603,     0.000,     0.000,     0.000,     0.000,   1,1,0
   193,'1 ',1,   3,   3,     5.620,     1.826,     0.000,     0.000,     0.000,     0.000,   1,1,0
   194,'1 ',1,   3,   3,    11.308,     4.266,     0.000,     0.000,     0.000,     0.000,   1,1,0
   195,'1 ',1,   3,   3,     9.886,     2.096,     0.000,     0.000,     0.000,     0.000,   1,1,0
   196,'1 ',1,   3,   3,     3.518,     0.000,     0.000,     0.000,     0.000,     0.000,   1,1,0
   196,'99',1,   3,   3,     0.392,    -0.151,     0.000,     0.000,     0.000,     0.000,   1,1,0
   197,'1 ',1,   3,   3,     4.939,     1.422,     0.000,     0.000,     0.000,     0.000,   1,1,0
   198,'1 ',1,   3,   3,     3.518,     0.337,     0.000,     0.000,     0.000,     0.000,   1,1,0
   201,'1 ',1,   3,   3,     6.368,     0.674,     0.000,     0.000,     0.000,     0.000,   1,1,0
   202,'1 ',1,   3,   3,     5.620,     0.674,     0.000,     0.000,     0.000,     0.000,   1,1,0
   202,'99',1,   3,   3,     8.882,    -0.242,     0.000,     0.000,     0.000,     0.000,   1,1,0
   203,'1 ',1,   3,   3,     7.042,     0.674,     0.000,     0.000,     0.000,     0.000,   1,1,0
   204,'1 ',1,   3,   3,     5.620,     2.096,     0.000,     0.000,     0.000,     0.000,   1,1,0
   206,'1 ',1,   3,   3,     9.886,     2.096,     0.000,     0.000,     0.000,     0.000,   1,1,0
   207,'1 ',1,   3,   3,    20.513,     2.844,     0.000,     0.000,     0.000,     0.000,   1,1,0
   208,'1 ',1,   3,   3,    12.729,     3.181,     0.000,     0.000,     0.000,     0.000,   1,1,0
   209,'1 ',1,   3,   3,     7.783,     0.674,     0.000,     0.000,     0.000,     0.000,   1,1,0
   210,'1 ',1,   3,   3,    11.981,     2.844,     0.000,     0.000,     0.000,     0.000,   1,1,0
   212,'99',1,   3,   3,     0.179,    -1.016,     0.000,     0.000,     0.000,     0.000,   1,1,0
   213,'99',1,   3,   3,     2.048,    -0.580,     0.000,     0.000,     0.000,     0.000,   1,1,0
   218,'99',1,   4,   4,     9.018,    87.598,     0.000,     0.000,     0.000,     0.000,   1,1,0
   221,'99',0,   4,   4,    50.269,    14.410,     0.000,     0.000,     0.000,     0.000,   1,1,0
   222,'99',1,   4,   4,    66.006,    40.826,     0.000,     0.000,     0.000,     0.000,   1,1,0
   223,'1 ',1,   4,   4,     6.739,    29.650,     0.000,     0.000,     0.000,     0.000,   1,1,0
   224,'1 ',1,   4,   4,     6.739,    29.650,     0.000,     0.000,     0.000,     0.000,   1,1,0
   225,'1 ',1,   4,   4,    12.264,    25.075,     0.000,     0.000,     0.000,     0.000,   1,1,0
   225,'99',0,   4,   4,     4.862,  -115.845,     0.000,     0.000,     0.000,     0.000,   1,1,0
   226,'99',0,   4,   4,    40.753,   -19.411,     0.000,     0.000,     0.000,     0.000,   1,1,0
   227,'1 ',1,   4,   4,     0.000,    -0.532,     0.000,     0.000,     0.000,     0.000,   1,1,0
   228,'1 ',1,   4,   4,     0.000,    -0.532,     0.000,     0.000,     0.000,     0.000,   1,1,0
   229,'1 ',1,   4,   4,     2.446,     0.876,     0.000,     0.000,     0.000,     0.000,   1,1,0
   231,'99',1,   4,   4,    19.811,    -6.572,     0.000,     0.000,     0.000,     0.000,   1,1,0
   232,'99',0,   4,   4,    15.184,     4.564,     0.000,     0.000,     0.000,     0.000,   1,1,0
   233,'1 ',1,   4,   4,     7.197,     3.113,     0.000,     0.000,     0.000,     0.000,   1,1,0
   234,'1 ',1,   4,   4,     3.673,     2.770,     0.000,     0.000,     0.000,     0.000,   1,1,0
   235,'1 ',1,   4,   4,     0.142,     0.155,     0.000,     0.000,     0.000,     0.000,   1,1,0
   235,'99',1,   4,   4,    43.364,    10.527,     0.000,     0.000,     0.000,     0.000,   1,1,0
   236,'1 ',1,   4,   4,     1.078,    -0.364,     0.000,     0.000,     0.000,     0.000,   1,1,0
   238,'1 ',1,   4,   4,    38.411,    13.006,     0.000,     0.000,     0.000,     0.000,   1,1,0
   241,'99',1,   4,   4,    26.081,     5.375,     0.000,     0.000,     0.000,     0.000,   1,1,0
   242,'1 ',1,   4,   4,     0.795,     0.135,     0.000,     0.000,     0.000,     0.000,   1,1,0
   243,'99',1,   4,   4,    12.702,    -6.615,     0.000,     0.000,     0.000,     0.000,   1,1,0
   244,'1 ',1,   4,   4,     3.026,     1.011,     0.000,     0.000,     0.000,     0.000,   1,1,0
   246,'1 ',1,   4,   4,     6.739,    29.650,     0.000,     0.000,     0.000,     0.000,   1,1,0
...
0 / END OF LOAD DATA, BEGIN FIXED SHUNT DATA
     2,'99',1,     0.000,    -7.133
     4,'99',1,     0.000,    -9.601
     6,'99',1,     0.000,    41.987
    32,'99',1,     0.000,    -1.306
    39,'99',1,     0.000,    -0.488
    43,'99',1,     0.000,     3.712
    49,'99',1,     0.000,    -4.149
    53,'99',1,     0.000,   -61.980
    67,'99',1,     0.000,     3.708
    86,'99',1,     0.000,     6.325
    90,'99',1,     0.000,    -0.019
   153,'99',1,     0.000,   -11.354
   156,'99',1,     0.000,    75.294
   157,'99',1,     0.000,   -27.072
   158,'99',1,     0.000,  -322.112
   161,'99',1,     0.000,  -124.239
   221,'99',1,     0.000,    13.922
   225,'99',1,     0.000,  -110.360
   226,'99',1,     0.000,   -18.625
   232,'99',1,     0.000,     4.355
   245,'99',1,     0.000,   -10.356
   253,'99',1,     0.000,     6.238
   255,'99',1,     0.000,     7.309
   271,'99',1,     0.000,     5.929
   275,'99',1,     0.000,    84.787
   277,'99',1,     0.000,   110.690
   281,'99',1,     0.000,     2.151
   285,'99',1,     0.000,  -161.346
   309,'99',1,     0.000,    22.813
   348,'99',1,     0.000,   -12.059
   374,'99',1,     0.000,  -345.603
   466,'99',1,     0.000,  -104.053
   471,'99',1,     0.000,  -290.111
   478,'99',1,     0.000,    64.761
   577,'99',1,     0.000,    -7.123
   579,'99',1,     0.000,    -9.607
   580,'99',1,     0.000,  -102.360
   581,'99',1,     0.000,    47.641
   583,'99',1,     0.000,    -2.918
   585,'99',1,     0.000,    13.934
   589,'99',1,     0.000,     3.923
   623,'99',1,     0.000,     8.010
   624,'99',1,     0.000,    -7.008
   636,'99',1,     0.000,     0.009
   672,'99',1,     0.000,    12.795
   690,'99',1,     0.000,     6.841
   695,'99',1,     0.000,    16.470
   698,'99',1,     0.000,   160.079
   703,'99',1,     0.000,   -47.656
   718,'99',1,     0.000,   -21.734
   720,'99',1,     0.000,    20.121
   723,'99',1,     0.000,     8.700
   750,'99',1,     0.000,    13.261
   760,'99',1,     0.000,    64.443
   766,'99',1,     0.000,   115.888
   817,'99',1,     0.000,    11.465
   869,'99',1,     0.000,     5.172
   883,'99',1,     0.000,    11.098
   939,'99',1,     0.000,    11.802
   942,'99',1,     0.000,     7.486
   979,'99',1,     0.000,    14.306
   983,'99',1,     0.000,    -5.456
   995,'99',1,     0.000,    14.167
  1012,'99',1,     0.000,     2.712
  1013,'99',1,     0.000,   -10.135
  1054,'99',1,     0.000,     2.499
  1096,'99',1,     0.000,   -29.377
  1135,'99',1,     0.000,    16.277
  1226,'99',1,     0.000,   307.861
  1241,'99',1,     0.000,    -9.766
  1245,'99',1,     0.000,    28.800
  1266,'99',1,     0.000,     1.091
  1267,'99',1,     0.000,   -13.276
  1351,'99',1,     0.000,     9.622
  1359,'99',1,     0.000,    44.093
  1376,'99',1,     0.000,    62.250
  1377,'99',1,     0.000,    37.157
  1384,'99',1,     0.000,    -0.278
  1400,'99',1,     0.000,    13.892
  1495,'99',1,     0.000,    -1.174
  1496,'99',1,     0.000,    12.766
  1525,'99',1,     0.000,   -18.886
  1533,'99',1,     0.000,   -95.945
  1557,'99',1,     0.000,   -31.028
  1565,'99',1,     0.000,   -52.104
  1621,'99',1,     0.000,   -73.418
  1807,'99',1,     0.000,   -15.963
  1877,'99',1,     0.000,    -5.368
  1878,'99',1,     0.000,    12.724
  1880,'99',1,     0.000,    -5.367
  1923,'99',1,     0.000,    -9.083
  1951,'99',1,     0.000,     0.756
  1979,'99',1,     0.000,     0.624
  1998,'99',1,     0.000,     4.345
  1999,'99',1,     0.000,    17.297
  2083,'99',1,     0.000,    28.513
  2093,'99',1,     0.000,   103.474
  2095,'99',1,     0.000,   -13.183
  2109,'99',1,     0.000,   -38.789
  2111,'99',1,     0.000,    -2.161
  2129,'99',1,     0.000,    -0.089
  2146,'99',1,     0.000,   -19.827
  2172,'99',1,     0.000,     2.864
  2174,'99',1,     0.000,     9.100
  2179,'99',1,     0.000,    94.807
  2192,'99',1,     0.000,    -0.371
  2197,'99',1,     0.000,     5.815
  2224,'99',1,     0.000,     1.293
  2230,'99',1,     0.000,   -11.696
  2244,'99',1,     0.000,     3.661
  2246,'99',1,     0.000,   -32.703
  2251,'99',1,     0.000,    17.159
  2258,'99',1,     0.000,     9.498
  2262,'99',1,     0.000,    -0.418
  2269,'99',1,     0.000,  -361.197
  2287,'99',1,     0.000,   191.001
  2293,'99',1,     0.000,  -120.311
  2296,'99',1,     0.000,     2.477
  2297,'99',1,     0.000,  -130.348
  2309,'99',1,     0.000,    30.957
  2311,'99',1,     0.000,   -63.287
0 / END OF FIXED SHUNT DATA, BEGIN GENERATOR DATA
     9,'1 ',     0.000,     0.000,   230.625,  -230.625,1.00788,     0,   100.000, 0.00000E+0, 1.80000E-1, 0.00000E+0, 0.00000E+0,1.00000,0,  100.0,   320.312,   135.000,   1,1.0000,0,1,0,1,0,1,0,1
    10,'1 ',   421.188,   -11.008,   383.901,  -383.901,1.00358,     0,   100.000, 0.00000E+0, 1.80000E-1, 0.00000E+0, 0.00000E+0,1.00000,1,  100.0,   533.196,   171.516,   1,1.0000,0,1,0,1,0,1,0,1
    10,'2 ',   284.099,    -7.425,   399.796,  -399.796,1.00358,     0,   100.000, 0.00000E+0, 1.80000E-1, 0.00000E+0, 0.00000E+0,1.00000,1,  100.0,   555.273,   178.876,   1,1.0000,0,1,0,1,0,1,0,1
    11,'1 ',     0.000,     0.000,    16.000,   -16.000,1.00788,     0,   100.000, 0.00000E+0, 2.00000E-1, 0.00000E+0, 0.00000E+0,1.00000,0,  100.0,    55.000,    40.000,   1,1.0000,0,1,0,1,0,1,0,1
    11,'2 ',     0.000,     0.000,    49.500,   -49.500,1.00788,     0,   100.000, 0.00000E+0, 2.00000E-1, 0.00000E+0, 0.00000E+0,1.00000,0,  100.0,    68.750,    35.833,   1,1.0000,0,1,0,1,0,1,0,1
    12,'1 ',     0.000,     0.000,    49.500,   -49.500,1.00788,     0,   100.000, 0.00000E+0, 2.00000E-1, 0.00000E+0, 0.00000E+0,1.00000,0,  100.0,    68.750,    35.833,   1,1.0000,0,1,0,1,0,1,0,1
    20,'1 ',     0.000,     0.000,    16.667,   -16.667,1.02455,     0,   100.000, 0.00000E+0, 2.00000E-1, 0.00000E+0, 0.00000E+0,1.00000,0,  100.0,    50.000,    38.000,   1,1.0000,0,1,0,1,0,1,0,1
    24,'99',     0.083,    10.855,   650.000,  -650.000,1.00540,     0,   100.000, 0.00000E+0, 1.00000E+0, 0.00000E+0, 0.00000E+0,1.00000,1,  100.0,    93.131,     0.000,   1,1.0000,0,1,0,1,0,1,0,1
    25,'1 ',     0.000,     0.000,     8.000,    -8.000,1.02455,     0,   100.000, 0.00000E+0, 2.00000E-1, 0.00000E+0, 0.00000E+0,1.00000,0,  100.0,    24.000,     5.000,   1,1.0000,0,1,0,1,0,1,0,1
    25,'2 ',     0.000,     0.000,     5.667,    -5.667,1.02455,     0,   100.000, 0.00000E+0, 2.00000E-1, 0.00000E+0, 0.00000E+0,1.00000,0,  100.0,    17.000,     4.000,   1,1.0000,0,1,0,1,0,1,0,1
    26,'1 ',     0.000,     0.000,    13.500,   -13.500,1.00788,     0,   100.000, 0.00000E+0, 2.00000E-1, 0.00000E+0, 0.00000E+0,1.00000,0,  100.0,    18.750,     3.000,   1,1.0000,0,1,0,1,0,1,0,1
    26,'2 ',     0.000,     0.000,     5.000,    -5.000,1.00788,     0,   100.000, 0.00000E+0, 2.00000E-1, 0.00000E+0, 0.00000E+0,1.00000,0,  100.0,    15.000,     3.000,   1,1.0000,0,1,0,1,0,1,0,1
    26,'3 ',     0.000,     0.000,     5.000,    -5.000,1.00788,     0,   100.000, 0.00000E+0, 2.00000E-1, 0.00000E+0, 0.00000E+0,1.00000,0,  100.0,    15.000,     3.000,   1,1.0000,0,1,0,1,0,1,0,1
    32,'99',     6.013,    -1.370,    33.333,   -33.333,1.02382,     0,   100.000, 0.00000E+0, 1.00000E+0, 0.00000E+0, 0.00000E+0,1.00000,0,  100.0,   265.000,     6.013,   1,1.0000,0,1,0,1,0,1,0,1
    46,'1 ',     0.000,     0.000,     4.000,    -4.000,0.99758,     0,   100.000, 0.00000E+0, 2.00000E-1, 0.00000E+0, 0.00000E+0,1.00000,0,  100.0,    12.000,     0.000,   1,1.0000,0,1,0,1,0,1,0,1
    46,'2 ',    12.000,    10.800,    10.800,   -10.800,0.99758,     0,   100.000, 0.00000E+0, 2.00000E-1, 0.00000E+0, 0.00000E+0,1.00000,1,  100.0,    15.000,     0.000,   1,1.0000,0,1,0,1,0,1,0,1
    53,'99',    12.674,   -62.519,    33.333,   -33.333,1.00434,     0,   100.000, 0.00000E+0, 1.00000E+0, 0.00000E+0, 0.00000E+0,1.00000,0,  100.0,    27.674,    12.674,   1,1.0000,0,1,0,1,0,1,0,1
    67,'99',     3.326,     3.705,    33.333,   -33.333,1.00356,     0,   100.000, 0.00000E+0, 1.00000E+0, 0.00000E+0, 0.00000E+0,1.00000,0,  100.0,   268.000,     3.326,   1,1.0000,0,1,0,1,0,1,0,1
    68,'1 ',   243.172,     0.923,   230.625,  -230.625,1.00858,     0,   100.000, 0.00000E+0, 1.80000E-1, 0.00000E+0, 0.00000E+0,1.00000,1,  100.0,   320.312,   135.000,   1,1.0000,0,1,0,1,0,1,0,1
    75,'1 ',     0.000,     0.000,   184.500,  -184.500,1.00788,     0,   100.000, 0.00000E+0, 1.80000E-1, 0.00000E+0, 0.00000E+0,1.00000,0,  100.0,   256.250,   135.000,   1,1.0000,0,1,0,1,0,1,0,1
    76,'1 ',     0.000,     0.000,    74.000,   -74.000,1.00788,     0,   100.000, 0.00000E+0, 1.80000E-1, 0.00000E+0, 0.00000E+0,1.00000,0,  100.0,   222.000,    90.000,   1,1.0000,0,1,0,1,0,1,0,1
    76,'2 ',     0.000,     0.000,    68.333,   -68.333,1.00788,     0,   100.000, 0.00000E+0, 1.80000E-1, 0.00000E+0, 0.00000E+0,1.00000,0,  100.0,   205.000,   135.000,   1,1.0000,0,1,0,1,0,1,0,1
    76,'3 ',   232.000,   122.767,   208.800,  -208.800,1.00788,     0,   100.000, 0.00000E+0, 1.80000E-1, 0.00000E+0, 0.00000E+0,1.00000,1,  100.0,   290.000,   100.000,   1,1.0000,0,1,0,1,0,1,0,1
    77,'1 ',     0.000,     0.000,   225.000,  -225.000,1.00260,     0,   100.000, 0.00000E+0, 1.80000E-1, 0.00000E+0, 0.00000E+0,1.00000,0,  100.0,   312.500,    90.000,   1,1.0000,0,1,0,1,0,1,0,1
    77,'99',    94.890,    17.019,   650.000,  -650.000,1.00260,     0,   100.000, 0.00000E+0, 1.00000E+0, 0.00000E+0, 0.00000E+0,1.00000,1,  100.0,   309.292,     0.000,   1,1.0000,0,1,0,1,0,1,0,1
    78,'99',    52.756,   -91.606,   650.000,  -650.000,0.99160,     0,   100.000, 0.00000E+0, 1.00000E+0, 0.00000E+0, 0.00000E+0,1.00000,1,  100.0,   217.319,     0.000,   1,1.0000,0,1,0,1,0,1,0,1
    90,'99',    19.203,    -0.019,    33.333,   -33.333,0.99752,     0,   100.000, 0.00000E+0, 1.00000E+0, 0.00000E+0, 0.00000E+0,1.00000,0,  100.0,    34.203,    19.203,   1,1.0000,0,1,0,1,0,1,0,1
    92,'1 ',   142.800,    11.835,   199.800,  -199.800,1.00542,     0,   100.000, 0.00000E+0, 1.80000E-1, 0.00000E+0, 0.00000E+0,1.00000,1,  100.0,   277.500,    90.000,   1,1.0000,0,1,0,1,0,1,0,1
    95,'1 ',     0.000,     0.000,   258.300,  -258.300,1.00225,     0,   100.000, 0.00000E+0, 2.00000E-1, 0.00000E+0, 0.00000E+0,1.00000,0,  100.0,   358.750,     0.000,   1,1.0000,0,1,0,1,0,1,0,1
    96,'1 ',     0.000,     0.000,     0.333,    -0.333,1.02455,     0,   100.000, 0.00000E+0, 2.00000E-1, 0.00000E+0, 0.00000E+0,1.00000,0,  100.0,   274.000,     0.000,   1,1.0000,0,1,0,1,0,1,0,1
    98,'1 ',     0.000,     0.000,    59.287,   -59.287,1.00358,     0,   100.000, 0.00000E+0, 2.00000E-1, 0.00000E+0, 0.00000E+0,1.00000,0,  100.0,    82.344,    10.000,   1,1.0000,0,1,0,1,0,1,0,1
    98,'2 ',   267.000,   -44.450,   240.300,  -240.300,1.00358,     0,   100.000, 0.00000E+0, 2.00000E-1, 0.00000E+0, 0.00000E+0,1.00000,1,  100.0,   333.750,     2.000,   1,1.0000,0,1,0,1,0,1,0,1
    99,'1 ',   262.000,   -20.345,   235.800,  -235.800,1.00788,     0,   100.000, 0.00000E+0, 2.00000E-1, 0.00000E+0, 0.00000E+0,1.00000,1,  100.0,   327.500,     1.000,   1,1.0000,0,1,0,1,0,1,0,1
    99,'2 ',     0.000,     0.000,     9.667,    -9.667,1.00788,     0,   100.000, 0.00000E+0, 2.00000E-1, 0.00000E+0, 0.00000E+0,1.00000,0,  100.0,    36.000,    21.000,   1,1.0000,0,1,0,1,0,1,0,1
   112,'1 ',     0.000,     0.000,   250.200,  -250.200,1.00358,     0,   100.000, 0.00000E+0, 2.00000E-1, 0.00000E+0, 0.00000E+0,1.00000,0,  100.0,   347.500,     0.000,   1,1.0000,0,1,0,1,0,1,0,1
   112,'2 ',     0.000,     0.000,   259.200,  -259.200,1.00358,     0,   100.000, 0.00000E+0, 2.00000E-1, 0.00000E+0, 0.00000E+0,1.00000,0,  100.0,   360.000,     1.000,   1,1.0000,0,1,0,1,0,1,0,1
   120,'1 ',    20.000,    18.000,    18.000,   -18.000,0.98449,     0,   100.000, 0.00000E+0, 2.00000E-1, 0.00000E+0, 0.00000E+0,1.00000,1,  100.0,    25.000,     5.000,   1,1.0000,0,1,0,1,0,1,0,1
   124,'1 ',     0.000,     0.000,    22.333,   -22.333,1.02455,     0,   100.000, 0.00000E+0, 2.00000E-1, 0.00000E+0, 0.00000E+0,1.00000,0,  100.0,    67.000,    40.000,   1,1.0000,0,1,0,1,0,1,0,1
   125,'1 ',     0.000,     0.000,    58.500,   -58.500,1.00929,     0,   100.000, 0.00000E+0, 2.00000E-1, 0.00000E+0, 0.00000E+0,1.00000,0,  100.0,    81.250,    40.000,   1,1.0000,0,1,0,1,0,1,0,1
   127,'1 ',     0.000,     0.000,    27.900,   -27.900,1.00507,     0,   100.000, 0.00000E+0, 2.00000E-1, 0.00000E+0, 0.00000E+0,1.00000,0,  100.0,    38.750,     0.000,   1,1.0000,0,1,0,1,0,1,0,1
   128,'1 ',     0.000,     0.000,    27.900,   -27.900,1.00507,     0,   100.000, 0.00000E+0, 2.00000E-1, 0.00000E+0, 0.00000E+0,1.00000,0,  100.0,    38.750,     0.000,   1,1.0000,0,1,0,1,0,1,0,1
   135,'1 ',   286.000,   -47.353,   257.400,  -257.400,1.00718,     0,   100.000, 0.00000E+0, 2.00000E-1, 0.00000E+0, 0.00000E+0,1.00000,1,  100.0,   357.500,     1.000,   1,1.0000,0,1,0,1,0,1,0,1
   136,'1 ',     0.000,     0.000,     1.333,    -1.333,1.02455,     0,   100.000, 0.00000E+0, 2.00000E-1, 0.00000E+0, 0.00000E+0,1.00000,0,  100.0,   256.000,     1.000,   1,1.0000,0,1,0,1,0,1,0,1
   136,'2 ',     0.000,     0.000,     6.000,    -6.000,1.02455,     0,   100.000, 0.00000E+0, 2.00000E-1, 0.00000E+0, 0.00000E+0,1.00000,0,  100.0,    18.000,     3.000,   1,1.0000,0,1,0,1,0,1,0,1
   136,'3 ',     0.000,     0.000,    18.667,   -18.667,1.02455,     0,   100.000, 0.00000E+0, 2.00000E-1, 0.00000E+0, 0.00000E+0,1.00000,0,  100.0,    56.000,    10.000,   1,1.0000,0,1,0,1,0,1,0,1
   138,'1 ',     0.000,     0.000,   234.000,  -234.000,1.00788,     0,   100.000, 0.00000E+0, 2.00000E-1, 0.00000E+0, 0.00000E+0,1.00000,0,  100.0,   325.000,     0.000,   1,1.0000,0,1,0,1,0,1,0,1
   150,'1 ',   268.000,    15.507,   241.200,  -241.200,1.00794,     0,   100.000, 0.00000E+0, 1.80000E-1, 0.00000E+0, 0.00000E+0,1.00000,1,  100.0,   335.000,     0.000,   1,1.0000,0,1,0,1,0,1,0,1
   153,'99',   122.965,   -11.335,    33.333,   -33.333,0.99917,     0,   100.000, 0.00000E+0, 1.00000E+0, 0.00000E+0, 0.00000E+0,1.00000,0,  100.0,   137.965,   122.965,   1,1.0000,0,1,0,1,0,1,0,1
   157,'99',    38.537,   -25.154,    33.333,   -33.333,0.96379,     0,   100.000, 0.00000E+0, 1.00000E+0, 0.00000E+0, 0.00000E+0,1.00000,0,  100.0,    53.537,    38.537,   1,1.0000,0,1,0,1,0,1,0,1
   158,'99',   269.075,  -293.602,    33.333,   -33.333,0.95472,     0,   100.000, 0.00000E+0, 1.00000E+0, 0.00000E+0, 0.00000E+0,1.00000,0,  100.0,   284.075,   269.075,   1,1.0000,0,1,0,1,0,1,0,1
   161,'99',    27.024,  -118.604,    33.333,   -33.333,0.97706,     0,   100.000, 0.00000E+0, 1.00000E+0, 0.00000E+0, 0.00000E+0,1.00000,0,  100.0,    42.024,    27.024,   1,1.0000,0,1,0,1,0,1,0,1
   165,'1 ',     0.000,     0.000,   161.100,  -161.100,1.00224,     0,   100.000, 0.00000E+0, 1.80000E-1, 0.00000E+0, 0.00000E+0,1.00000,0,  100.0,   223.750,  -200.000,   1,1.0000,0,1,0,1,0,1,0,1
   165,'2 ',     0.000,     0.000,   161.100,  -161.100,1.00224,     0,   100.000, 0.00000E+0, 1.80000E-1, 0.00000E+0, 0.00000E+0,1.00000,0,  100.0,   223.750,  -200.000,   1,1.0000,0,1,0,1,0,1,0,1
   165,'3 ',     0.000,     0.000,   161.100,  -161.100,1.00224,     0,   100.000, 0.00000E+0, 1.80000E-1, 0.00000E+0, 0.00000E+0,1.00000,0,  100.0,   223.750,  -200.000,   1,1.0000,0,1,0,1,0,1,0,1
   166,'1 ',   179.000,    89.985,   161.100,  -161.100,1.00445,     0,   100.000, 0.00000E+0, 1.80000E-1, 0.00000E+0, 0.00000E+0,1.00000,1,  100.0,   223.750,  -200.000,   1,1.0000,0,1,0,1,0,1,0,1
   168,'1 ',    29.521,    49.500,    49.500,   -49.500,1.00104,     0,   100.000, 0.00000E+0, 2.00000E-1, 0.00000E+0, 0.00000E+0,1.00000,1,  100.0,    68.750,    26.000,   1,1.0000,0,1,0,1,0,1,0,1
   169,'1 ',     0.000,     0.000,    18.333,   -18.333,1.01909,     0,   100.000, 0.00000E+0, 2.00000E-1, 0.00000E+0, 0.00000E+0,1.00000,0,  100.0,    55.000,    26.000,   1,1.0000,0,1,0,1,0,1,0,1
   171,'1 ',     0.000,     0.000,   255.600,  -255.600,1.00718,     0,   100.000, 0.00000E+0, 2.00000E-1, 0.00000E+0, 0.00000E+0,1.00000,0,  100.0,   355.000,     0.000,   1,1.0000,0,1,0,1,0,1,0,1
   177,'1 ',     0.000,     0.000,    16.200,   -16.200,1.00718,     0,   100.000, 0.00000E+0, 2.00000E-1, 0.00000E+0, 0.00000E+0,1.00000,0,  100.0,    22.500,     0.000,   1,1.0000,0,1,0,1,0,1,0,1
   178,'1 ',    22.000,    10.269,    19.800,   -19.800,1.00788,     0,   100.000, 0.00000E+0, 2.00000E-1, 0.00000E+0, 0.00000E+0,1.00000,1,  100.0,    27.500,     0.000,   1,1.0000,0,1,0,1,0,1,0,1
   183,'1 ',   181.261,   -39.944,   235.800,  -235.800,1.00718,     0,   100.000, 0.00000E+0, 2.00000E-1, 0.00000E+0, 0.00000E+0,1.00000,1,  100.0,   327.500,     0.000,   1,1.0000,0,1,0,1,0,1,0,1
   185,'99',   120.601,   -14.090,   650.000,  -650.000,1.00980,     0,   100.000, 0.00000E+0, 1.00000E+0, 0.00000E+0, 0.00000E+0,1.00000,1,  100.0,   341.250,     0.000,   1,1.0000,0,1,0,1,0,1,0,1
   188,'1 ',   128.237,    28.261,   269.100,  -269.100,1.00788,     0,   100.000, 0.00000E+0, 2.00000E-1, 0.00000E+0, 0.00000E+0,1.00000,1,  100.0,   373.750,     1.000,   1,1.0000,0,1,0,1,0,1,0,1
   194,'1 ',     0.000,     0.000,   255.600,  -255.600,1.00718,     0,   100.000, 0.00000E+0, 2.00000E-1, 0.00000E+0, 0.00000E+0,1.00000,0,  100.0,   355.000,     0.000,   1,1.0000,0,1,0,1,0,1,0,1
   195,'1 ',   164.047,     1.736,   230.400,  -230.400,1.00788,     0,   100.000, 0.00000E+0, 2.00000E-1, 0.00000E+0, 0.00000E+0,1.00000,1,  100.0,   320.000,     0.000,   1,1.0000,0,1,0,1,0,1,0,1
   201,'1 ',    94.692,   -11.165,   261.900,  -261.900,1.00788,     0,   100.000, 0.00000E+0, 2.00000E-1, 0.00000E+0, 0.00000E+0,1.00000,1,  100.0,   363.750,     0.000,   1,1.0000,0,1,0,1,0,1,0,1
   207,'1 ',     0.000,     0.000,   264.600,  -264.600,1.00718,     0,   100.000, 0.00000E+0, 2.00000E-1, 0.00000E+0, 0.00000E+0,1.00000,0,  100.0,   367.500,     0.000,   1,1.0000,0,1,0,1,0,1,0,1
   209,'1 ',     0.000,     0.000,   234.900,  -234.900,1.00718,     0,   100.000, 0.00000E+0, 2.00000E-1, 0.00000E+0, 0.00000E+0,1.00000,0,  100.0,   326.250,     0.000,   1,1.0000,0,1,0,1,0,1,0,1
   217,'99',    50.563,    58.376,   650.000,  -650.000,0.99870,     0,   100.000, 0.00000E+0, 1.00000E+0, 0.00000E+0, 0.00000E+0,1.00000,1,  100.0,   213.769,     0.000,   1,1.0000,0,1,0,1,0,1,0,1
   223,'1 ',     0.000,     0.000,   241.893,  -241.893,1.00788,     0,   100.000, 0.00000E+0, 1.80000E-1, 0.00000E+0, 0.00000E+0,1.00000,0,  100.0,   335.963,   120.000,   1,1.0000,0,1,0,1,0,1,0,1
   224,'1 ',   268.750,   105.260,   241.875,  -241.875,1.00788,     0,   100.000, 0.00000E+0, 1.80000E-1, 0.00000E+0, 0.00000E+0,1.00000,1,  100.0,   335.938,   120.000,   1,1.0000,0,1,0,1,0,1,0,1
   225,'1 ',   256.250,   145.050,   230.625,  -230.625,1.00788,     0,   100.000, 0.00000E+0, 1.80000E-1, 0.00000E+0, 0.00000E+0,1.00000,1,  100.0,   320.312,   135.000,   1,1.0000,0,1,0,1,0,1,0,1
   227,'1 ',     0.000,     0.000,    45.000,   -45.000,1.01227,     0,   100.000, 0.00000E+0, 1.80000E-1, 0.00000E+0, 0.00000E+0,1.00000,0,  100.0,   135.000,  -135.000,   1,1.0000,0,1,0,1,0,1,0,1
   227,'2 ',     0.000,     0.000,    45.000,   -45.000,1.01227,     0,   100.000, 0.00000E+0, 1.80000E-1, 0.00000E+0, 0.00000E+0,1.00000,0,  100.0,   135.000,  -135.000,   1,1.0000,0,1,0,1,0,1,0,1
   228,'1 ',     0.000,     0.000,    45.000,   -45.000,1.01227,     0,   100.000, 0.00000E+0, 1.80000E-1, 0.00000E+0, 0.00000E+0,1.00000,0,  100.0,   135.000,  -135.000,   1,1.0000,0,1,0,1,0,1,0,1
   228,'2 ',     0.000,     0.000,    45.000,   -45.000,1.01227,     0,   100.000, 0.00000E+0, 1.80000E-1, 0.00000E+0, 0.00000E+0,1.00000,0,  100.0,   135.000,  -135.000,   1,1.0000,0,1,0,1,0,1,0,1
   235,'1 ',     0.000,     0.000,    16.667,   -16.667,1.02455,     0,   100.000, 0.00000E+0, 2.00000E-1, 0.00000E+0, 0.00000E+0,1.00000,0,  100.0,    50.000,    38.000,   1,1.0000,0,1,0,1,0,1,0,1
   235,'2 ',     0.000,     0.000,    16.667,   -16.667,1.02455,     0,   100.000, 0.00000E+0, 2.00000E-1, 0.00000E+0, 0.00000E+0,1.00000,0,  100.0,    50.000,    38.000,   1,1.0000,0,1,0,1,0,1,0,1
   235,'3 ',     0.000,     0.000,    16.667,   -16.667,1.02455,     0,   100.000, 0.00000E+0, 2.00000E-1, 0.00000E+0, 0.00000E+0,1.00000,0,  100.0,    50.000,    38.000,   1,1.0000,0,1,0,1,0,1,0,1
...